XFLR5ÖÐÎÄ°æ V1.0

 Calculated polar for: NACA 2414

 1 1 Reynolds number fixed          Mach number fixed         

 xtrf =   1.000 (top)        1.000 (bottom)
 Mach =   0.000     Re =     0.060 e 6     Ncrit =   9.000

  alpha     CL        CD       CDp       Cm    Top Xtr Bot Xtr   Cpmin    Chinge    XCp    
 ------- -------- --------- --------- -------- ------- ------- -------- --------- ---------
  -5.000  -0.5399   0.02982   0.01996  -0.0193  1.0000  0.2244  -2.1610   0.0000   0.2070
  -4.500  -0.4994   0.02819   0.01834  -0.0175  1.0000  0.2554  -2.0095   0.0000   0.2078
  -4.000  -0.4583   0.02675   0.01686  -0.0160  1.0000  0.2957  -1.8556   0.0000   0.2083
  -3.500  -0.4176   0.02563   0.01592  -0.0144  1.0000  0.3466  -1.6966   0.0000   0.2087
  -3.000  -0.3777   0.02480   0.01546  -0.0128  1.0000  0.4125  -1.5357   0.0000   0.2096
  -2.500  -0.3390   0.02428   0.01542  -0.0110  1.0000  0.4989  -1.3956   0.0000   0.2113
  -2.000  -0.2948   0.02411   0.01587  -0.0097  0.9968  0.6259  -1.2513   0.0000   0.2111
  -1.500  -0.2239   0.02467   0.01730  -0.0093  0.9742  0.8329  -1.0631   0.0000   0.2022
  -1.000  -0.0226   0.02664   0.01884  -0.0362  0.9565  1.0000  -0.7451   0.0000  -1.3920
  -0.500   0.0566   0.02685   0.01862  -0.0447  0.9259  1.0000  -0.6140   0.0000   1.0489
   0.000   0.1267   0.02734   0.01881  -0.0496  0.8955  1.0000  -0.5342   0.0000   0.6424
   0.500   0.1925   0.02791   0.01916  -0.0529  0.8657  1.0000  -0.5829   0.0000   0.5233
   1.000   0.2629   0.02842   0.01950  -0.0563  0.8379  1.0000  -0.6399   0.0000   0.4614
   1.500   0.3337   0.02885   0.01982  -0.0592  0.8114  1.0000  -0.7027   0.0000   0.4240
   2.000   0.3986   0.02923   0.02012  -0.0606  0.7856  1.0000  -0.7684   0.0000   0.3980
   2.500   0.4622   0.02948   0.02037  -0.0612  0.7604  1.0000  -0.8422   0.0000   0.3779
   3.000   0.5315   0.02938   0.02024  -0.0620  0.7370  1.0000  -0.9324   0.0000   0.3617
   3.500   0.6023   0.02898   0.01983  -0.0624  0.7134  1.0000  -1.0419   0.0000   0.3483
   4.000   0.6510   0.02944   0.02031  -0.0601  0.6856  1.0000  -1.1430   0.0000   0.3366
   4.500   0.7011   0.02984   0.02079  -0.0578  0.6572  1.0000  -1.2624   0.0000   0.3262
   5.000   0.7531   0.03013   0.02111  -0.0556  0.6282  1.0000  -1.4028   0.0000   0.3171
   5.500   0.8073   0.03026   0.02126  -0.0534  0.5980  1.0000  -1.5637   0.0000   0.3090
   6.000   0.8651   0.03021   0.02125  -0.0515  0.5664  1.0000  -1.7507   0.0000   0.3018
   6.500   0.9032   0.03113   0.02227  -0.0477  0.5303  1.0000  -1.9114   0.0000   0.2945
   7.000   0.9487   0.03150   0.02268  -0.0444  0.4920  1.0000  -2.1082   0.0000   0.2879
   7.500   1.0091   0.03100   0.02195  -0.0425  0.4518  1.0000  -2.3497   0.0000   0.2825
   8.000   1.0417   0.03191   0.02304  -0.0378  0.4076  1.0000  -2.5328   0.0000   0.2761
   8.500   1.0839   0.03231   0.02323  -0.0342  0.3615  1.0000  -2.7689   0.0000   0.2706
   9.000   1.1215   0.03319   0.02378  -0.0303  0.3139  1.0000  -2.9942   0.0000   0.2653
   9.500   1.1469   0.03502   0.02550  -0.0254  0.2700  1.0000  -3.1777   0.0000   0.2597
  10.000   1.1705   0.03783   0.02828  -0.0209  0.2336  1.0000  -3.3434   0.0000   0.2547
  10.500   1.1960   0.04068   0.03109  -0.0169  0.2034  1.0000  -3.5145   0.0000   0.2503
  11.000   1.2225   0.04430   0.03473  -0.0135  0.1805  1.0000  -3.6981   0.0000   0.2465
  11.500   1.2332   0.04908   0.03989  -0.0089  0.1651  1.0000  -3.8286   0.0000   0.2419
  12.000   1.2421   0.05361   0.04458  -0.0045  0.1515  1.0000  -3.9689   0.0000   0.2376


